* NGSPICE file created from wrapped_acorn_prng.ext - technology: sky130A

* Black-box entry subcircuit for sky130_fd_sc_hd__tapvpwrvgnd_1 abstract view
.subckt sky130_fd_sc_hd__tapvpwrvgnd_1 VGND VPWR
.ends

* Black-box entry subcircuit for sky130_fd_sc_hd__decap_4 abstract view
.subckt sky130_fd_sc_hd__decap_4 VGND VNB VPB VPWR
.ends

* Black-box entry subcircuit for sky130_fd_sc_hd__o221a_1 abstract view
.subckt sky130_fd_sc_hd__o221a_1 A1 A2 B1 B2 C1 VGND VNB VPB VPWR X
.ends

* Black-box entry subcircuit for sky130_fd_sc_hd__o211a_1 abstract view
.subckt sky130_fd_sc_hd__o211a_1 A1 A2 B1 C1 VGND VNB VPB VPWR X
.ends

* Black-box entry subcircuit for sky130_fd_sc_hd__and2_1 abstract view
.subckt sky130_fd_sc_hd__and2_1 A B VGND VNB VPB VPWR X
.ends

* Black-box entry subcircuit for sky130_fd_sc_hd__conb_1 abstract view
.subckt sky130_fd_sc_hd__conb_1 VGND VNB VPB VPWR HI LO
.ends

* Black-box entry subcircuit for sky130_fd_sc_hd__decap_6 abstract view
.subckt sky130_fd_sc_hd__decap_6 VGND VNB VPB VPWR
.ends

* Black-box entry subcircuit for sky130_fd_sc_hd__fill_1 abstract view
.subckt sky130_fd_sc_hd__fill_1 VGND VNB VPB VPWR
.ends

* Black-box entry subcircuit for sky130_fd_sc_hd__fill_2 abstract view
.subckt sky130_fd_sc_hd__fill_2 VGND VNB VPB VPWR
.ends

* Black-box entry subcircuit for sky130_fd_sc_hd__decap_8 abstract view
.subckt sky130_fd_sc_hd__decap_8 VGND VNB VPB VPWR
.ends

* Black-box entry subcircuit for sky130_fd_sc_hd__dfxtp_1 abstract view
.subckt sky130_fd_sc_hd__dfxtp_1 CLK D VGND VNB VPB VPWR Q
.ends

* Black-box entry subcircuit for sky130_fd_sc_hd__a21o_1 abstract view
.subckt sky130_fd_sc_hd__a21o_1 A1 A2 B1 VGND VNB VPB VPWR X
.ends

* Black-box entry subcircuit for sky130_fd_sc_hd__clkbuf_2 abstract view
.subckt sky130_fd_sc_hd__clkbuf_2 A VGND VNB VPB VPWR X
.ends

* Black-box entry subcircuit for sky130_fd_sc_hd__mux2_1 abstract view
.subckt sky130_fd_sc_hd__mux2_1 A0 A1 S VGND VNB VPB VPWR X
.ends

* Black-box entry subcircuit for sky130_fd_sc_hd__nand2_1 abstract view
.subckt sky130_fd_sc_hd__nand2_1 A B VGND VNB VPB VPWR Y
.ends

* Black-box entry subcircuit for sky130_fd_sc_hd__clkbuf_1 abstract view
.subckt sky130_fd_sc_hd__clkbuf_1 A VGND VNB VPB VPWR X
.ends

* Black-box entry subcircuit for sky130_fd_sc_hd__xor2_1 abstract view
.subckt sky130_fd_sc_hd__xor2_1 A B VGND VNB VPB VPWR X
.ends

* Black-box entry subcircuit for sky130_fd_sc_hd__and3_1 abstract view
.subckt sky130_fd_sc_hd__and3_1 A B C VGND VNB VPB VPWR X
.ends

* Black-box entry subcircuit for sky130_fd_sc_hd__decap_12 abstract view
.subckt sky130_fd_sc_hd__decap_12 VGND VNB VPB VPWR
.ends

* Black-box entry subcircuit for sky130_fd_sc_hd__inv_2 abstract view
.subckt sky130_fd_sc_hd__inv_2 A VGND VNB VPB VPWR Y
.ends

* Black-box entry subcircuit for sky130_fd_sc_hd__a31o_1 abstract view
.subckt sky130_fd_sc_hd__a31o_1 A1 A2 A3 B1 VGND VNB VPB VPWR X
.ends

* Black-box entry subcircuit for sky130_fd_sc_hd__xnor2_1 abstract view
.subckt sky130_fd_sc_hd__xnor2_1 A B VGND VNB VPB VPWR Y
.ends

* Black-box entry subcircuit for sky130_fd_sc_hd__decap_3 abstract view
.subckt sky130_fd_sc_hd__decap_3 VGND VNB VPB VPWR
.ends

* Black-box entry subcircuit for sky130_fd_sc_hd__nor2_1 abstract view
.subckt sky130_fd_sc_hd__nor2_1 A B VGND VNB VPB VPWR Y
.ends

* Black-box entry subcircuit for sky130_fd_sc_hd__ebufn_8 abstract view
.subckt sky130_fd_sc_hd__ebufn_8 A TE_B VGND VNB VPB VPWR Z
.ends

* Black-box entry subcircuit for sky130_fd_sc_hd__a311oi_2 abstract view
.subckt sky130_fd_sc_hd__a311oi_2 A1 A2 A3 B1 C1 VGND VNB VPB VPWR Y
.ends

* Black-box entry subcircuit for sky130_fd_sc_hd__o21ai_1 abstract view
.subckt sky130_fd_sc_hd__o21ai_1 A1 A2 B1 VGND VNB VPB VPWR Y
.ends

* Black-box entry subcircuit for sky130_fd_sc_hd__buf_6 abstract view
.subckt sky130_fd_sc_hd__buf_6 A VGND VNB VPB VPWR X
.ends

* Black-box entry subcircuit for sky130_fd_sc_hd__a21oi_1 abstract view
.subckt sky130_fd_sc_hd__a21oi_1 A1 A2 B1 VGND VNB VPB VPWR Y
.ends

* Black-box entry subcircuit for sky130_fd_sc_hd__or3b_4 abstract view
.subckt sky130_fd_sc_hd__or3b_4 A B C_N VGND VNB VPB VPWR X
.ends

* Black-box entry subcircuit for sky130_fd_sc_hd__a211oi_1 abstract view
.subckt sky130_fd_sc_hd__a211oi_1 A1 A2 B1 C1 VGND VNB VPB VPWR Y
.ends

* Black-box entry subcircuit for sky130_fd_sc_hd__nor2_2 abstract view
.subckt sky130_fd_sc_hd__nor2_2 A B VGND VNB VPB VPWR Y
.ends

* Black-box entry subcircuit for sky130_fd_sc_hd__dfxtp_2 abstract view
.subckt sky130_fd_sc_hd__dfxtp_2 CLK D VGND VNB VPB VPWR Q
.ends

* Black-box entry subcircuit for sky130_fd_sc_hd__clkbuf_16 abstract view
.subckt sky130_fd_sc_hd__clkbuf_16 A VGND VNB VPB VPWR X
.ends

* Black-box entry subcircuit for sky130_fd_sc_hd__or2_1 abstract view
.subckt sky130_fd_sc_hd__or2_1 A B VGND VNB VPB VPWR X
.ends

* Black-box entry subcircuit for sky130_fd_sc_hd__dlymetal6s2s_1 abstract view
.subckt sky130_fd_sc_hd__dlymetal6s2s_1 A VGND VNB VPB VPWR X
.ends

* Black-box entry subcircuit for sky130_fd_sc_hd__and2b_1 abstract view
.subckt sky130_fd_sc_hd__and2b_1 A_N B VGND VNB VPB VPWR X
.ends

* Black-box entry subcircuit for sky130_fd_sc_hd__nand2_2 abstract view
.subckt sky130_fd_sc_hd__nand2_2 A B VGND VNB VPB VPWR Y
.ends

* Black-box entry subcircuit for sky130_fd_sc_hd__or2_2 abstract view
.subckt sky130_fd_sc_hd__or2_2 A B VGND VNB VPB VPWR X
.ends

* Black-box entry subcircuit for sky130_fd_sc_hd__a41o_1 abstract view
.subckt sky130_fd_sc_hd__a41o_1 A1 A2 A3 A4 B1 VGND VNB VPB VPWR X
.ends

* Black-box entry subcircuit for sky130_fd_sc_hd__a22oi_1 abstract view
.subckt sky130_fd_sc_hd__a22oi_1 A1 A2 B1 B2 VGND VNB VPB VPWR Y
.ends

* Black-box entry subcircuit for sky130_fd_sc_hd__buf_8 abstract view
.subckt sky130_fd_sc_hd__buf_8 A VGND VNB VPB VPWR X
.ends

* Black-box entry subcircuit for sky130_fd_sc_hd__buf_2 abstract view
.subckt sky130_fd_sc_hd__buf_2 A VGND VNB VPB VPWR X
.ends

* Black-box entry subcircuit for sky130_fd_sc_hd__o31ai_1 abstract view
.subckt sky130_fd_sc_hd__o31ai_1 A1 A2 A3 B1 VGND VNB VPB VPWR Y
.ends

* Black-box entry subcircuit for sky130_fd_sc_hd__a21bo_1 abstract view
.subckt sky130_fd_sc_hd__a21bo_1 A1 A2 B1_N VGND VNB VPB VPWR X
.ends

* Black-box entry subcircuit for sky130_fd_sc_hd__a211o_1 abstract view
.subckt sky130_fd_sc_hd__a211o_1 A1 A2 B1 C1 VGND VNB VPB VPWR X
.ends

* Black-box entry subcircuit for sky130_fd_sc_hd__or3_1 abstract view
.subckt sky130_fd_sc_hd__or3_1 A B C VGND VNB VPB VPWR X
.ends

* Black-box entry subcircuit for sky130_fd_sc_hd__o21a_1 abstract view
.subckt sky130_fd_sc_hd__o21a_1 A1 A2 B1 VGND VNB VPB VPWR X
.ends

* Black-box entry subcircuit for sky130_fd_sc_hd__nand3_1 abstract view
.subckt sky130_fd_sc_hd__nand3_1 A B C VGND VNB VPB VPWR Y
.ends

* Black-box entry subcircuit for sky130_fd_sc_hd__a311o_1 abstract view
.subckt sky130_fd_sc_hd__a311o_1 A1 A2 A3 B1 C1 VGND VNB VPB VPWR X
.ends

* Black-box entry subcircuit for sky130_fd_sc_hd__a221o_1 abstract view
.subckt sky130_fd_sc_hd__a221o_1 A1 A2 B1 B2 C1 VGND VNB VPB VPWR X
.ends

* Black-box entry subcircuit for sky130_fd_sc_hd__or2b_1 abstract view
.subckt sky130_fd_sc_hd__or2b_1 A B_N VGND VNB VPB VPWR X
.ends

* Black-box entry subcircuit for sky130_fd_sc_hd__xor2_2 abstract view
.subckt sky130_fd_sc_hd__xor2_2 A B VGND VNB VPB VPWR X
.ends

* Black-box entry subcircuit for sky130_fd_sc_hd__a22o_1 abstract view
.subckt sky130_fd_sc_hd__a22o_1 A1 A2 B1 B2 VGND VNB VPB VPWR X
.ends

* Black-box entry subcircuit for sky130_fd_sc_hd__clkbuf_4 abstract view
.subckt sky130_fd_sc_hd__clkbuf_4 A VGND VNB VPB VPWR X
.ends

* Black-box entry subcircuit for sky130_fd_sc_hd__buf_12 abstract view
.subckt sky130_fd_sc_hd__buf_12 A VGND VNB VPB VPWR X
.ends

* Black-box entry subcircuit for sky130_fd_sc_hd__and2_2 abstract view
.subckt sky130_fd_sc_hd__and2_2 A B VGND VNB VPB VPWR X
.ends

* Black-box entry subcircuit for sky130_fd_sc_hd__a221oi_1 abstract view
.subckt sky130_fd_sc_hd__a221oi_1 A1 A2 B1 B2 C1 VGND VNB VPB VPWR Y
.ends

* Black-box entry subcircuit for sky130_fd_sc_hd__buf_4 abstract view
.subckt sky130_fd_sc_hd__buf_4 A VGND VNB VPB VPWR X
.ends

* Black-box entry subcircuit for sky130_fd_sc_hd__and4_1 abstract view
.subckt sky130_fd_sc_hd__and4_1 A B C D VGND VNB VPB VPWR X
.ends

* Black-box entry subcircuit for sky130_fd_sc_hd__or3_2 abstract view
.subckt sky130_fd_sc_hd__or3_2 A B C VGND VNB VPB VPWR X
.ends

* Black-box entry subcircuit for sky130_fd_sc_hd__a31oi_1 abstract view
.subckt sky130_fd_sc_hd__a31oi_1 A1 A2 A3 B1 VGND VNB VPB VPWR Y
.ends

* Black-box entry subcircuit for sky130_fd_sc_hd__nor3_1 abstract view
.subckt sky130_fd_sc_hd__nor3_1 A B C VGND VNB VPB VPWR Y
.ends

* Black-box entry subcircuit for sky130_fd_sc_hd__o2bb2a_1 abstract view
.subckt sky130_fd_sc_hd__o2bb2a_1 A1_N A2_N B1 B2 VGND VNB VPB VPWR X
.ends

* Black-box entry subcircuit for sky130_fd_sc_hd__or3b_1 abstract view
.subckt sky130_fd_sc_hd__or3b_1 A B C_N VGND VNB VPB VPWR X
.ends

* Black-box entry subcircuit for sky130_fd_sc_hd__a31o_2 abstract view
.subckt sky130_fd_sc_hd__a31o_2 A1 A2 A3 B1 VGND VNB VPB VPWR X
.ends

* Black-box entry subcircuit for sky130_fd_sc_hd__clkinv_2 abstract view
.subckt sky130_fd_sc_hd__clkinv_2 A VGND VNB VPB VPWR Y
.ends

* Black-box entry subcircuit for sky130_fd_sc_hd__diode_2 abstract view
.subckt sky130_fd_sc_hd__diode_2 DIODE VGND VNB VPB VPWR
.ends

* Black-box entry subcircuit for sky130_fd_sc_hd__o21ai_2 abstract view
.subckt sky130_fd_sc_hd__o21ai_2 A1 A2 B1 VGND VNB VPB VPWR Y
.ends

* Black-box entry subcircuit for sky130_fd_sc_hd__clkbuf_8 abstract view
.subckt sky130_fd_sc_hd__clkbuf_8 A VGND VNB VPB VPWR X
.ends

.subckt wrapped_acorn_prng active io_in[0] io_in[10] io_in[11] io_in[12] io_in[13]
+ io_in[14] io_in[15] io_in[16] io_in[17] io_in[18] io_in[19] io_in[1] io_in[20] io_in[21]
+ io_in[22] io_in[23] io_in[24] io_in[25] io_in[26] io_in[27] io_in[28] io_in[29]
+ io_in[2] io_in[30] io_in[31] io_in[32] io_in[33] io_in[34] io_in[35] io_in[36] io_in[37]
+ io_in[3] io_in[4] io_in[5] io_in[6] io_in[7] io_in[8] io_in[9] io_oeb[0] io_oeb[10]
+ io_oeb[11] io_oeb[12] io_oeb[13] io_oeb[14] io_oeb[15] io_oeb[16] io_oeb[17] io_oeb[18]
+ io_oeb[19] io_oeb[1] io_oeb[20] io_oeb[21] io_oeb[22] io_oeb[23] io_oeb[24] io_oeb[25]
+ io_oeb[26] io_oeb[27] io_oeb[28] io_oeb[29] io_oeb[2] io_oeb[30] io_oeb[31] io_oeb[32]
+ io_oeb[33] io_oeb[34] io_oeb[35] io_oeb[36] io_oeb[37] io_oeb[3] io_oeb[4] io_oeb[5]
+ io_oeb[6] io_oeb[7] io_oeb[8] io_oeb[9] io_out[0] io_out[10] io_out[11] io_out[12]
+ io_out[13] io_out[14] io_out[15] io_out[16] io_out[17] io_out[18] io_out[19] io_out[1]
+ io_out[20] io_out[21] io_out[22] io_out[23] io_out[24] io_out[25] io_out[26] io_out[27]
+ io_out[28] io_out[29] io_out[2] io_out[30] io_out[31] io_out[32] io_out[33] io_out[34]
+ io_out[35] io_out[36] io_out[37] io_out[3] io_out[4] io_out[5] io_out[6] io_out[7]
+ io_out[8] io_out[9] la1_data_in[0] la1_data_in[10] la1_data_in[11] la1_data_in[12]
+ la1_data_in[13] la1_data_in[14] la1_data_in[15] la1_data_in[16] la1_data_in[17]
+ la1_data_in[18] la1_data_in[19] la1_data_in[1] la1_data_in[20] la1_data_in[21] la1_data_in[22]
+ la1_data_in[23] la1_data_in[24] la1_data_in[25] la1_data_in[26] la1_data_in[27]
+ la1_data_in[28] la1_data_in[29] la1_data_in[2] la1_data_in[30] la1_data_in[31] la1_data_in[3]
+ la1_data_in[4] la1_data_in[5] la1_data_in[6] la1_data_in[7] la1_data_in[8] la1_data_in[9]
+ la1_data_out[0] la1_data_out[10] la1_data_out[11] la1_data_out[12] la1_data_out[13]
+ la1_data_out[14] la1_data_out[15] la1_data_out[16] la1_data_out[17] la1_data_out[18]
+ la1_data_out[19] la1_data_out[1] la1_data_out[20] la1_data_out[21] la1_data_out[22]
+ la1_data_out[23] la1_data_out[24] la1_data_out[25] la1_data_out[26] la1_data_out[27]
+ la1_data_out[28] la1_data_out[29] la1_data_out[2] la1_data_out[30] la1_data_out[31]
+ la1_data_out[3] la1_data_out[4] la1_data_out[5] la1_data_out[6] la1_data_out[7]
+ la1_data_out[8] la1_data_out[9] la1_oenb[0] la1_oenb[10] la1_oenb[11] la1_oenb[12]
+ la1_oenb[13] la1_oenb[14] la1_oenb[15] la1_oenb[16] la1_oenb[17] la1_oenb[18] la1_oenb[19]
+ la1_oenb[1] la1_oenb[20] la1_oenb[21] la1_oenb[22] la1_oenb[23] la1_oenb[24] la1_oenb[25]
+ la1_oenb[26] la1_oenb[27] la1_oenb[28] la1_oenb[29] la1_oenb[2] la1_oenb[30] la1_oenb[31]
+ la1_oenb[3] la1_oenb[4] la1_oenb[5] la1_oenb[6] la1_oenb[7] la1_oenb[8] la1_oenb[9]
+ vccd1 vssd1 wb_clk_i
XTAP_177 vssd1 vccd1 sky130_fd_sc_hd__tapvpwrvgnd_1
XTAP_188 vssd1 vccd1 sky130_fd_sc_hd__tapvpwrvgnd_1
XTAP_199 vssd1 vccd1 sky130_fd_sc_hd__tapvpwrvgnd_1
XFILLER_27_406 vssd1 vssd1 vccd1 vccd1 sky130_fd_sc_hd__decap_4
X_3155_ _4869_/Q _3074_/A _3153_/Y _3154_/X _3135_/X vssd1 vssd1 vccd1 vccd1 _4869_/D
+ sky130_fd_sc_hd__o221a_1
XFILLER_39_266 vssd1 vssd1 vccd1 vccd1 sky130_fd_sc_hd__decap_4
X_3086_ _4861_/Q _3074_/X _3085_/X _3063_/X vssd1 vssd1 vccd1 vccd1 _4861_/D sky130_fd_sc_hd__o211a_1
X_3988_ _4987_/Q _4767_/Q vssd1 vssd1 vccd1 vccd1 _3996_/B sky130_fd_sc_hd__and2_1
X_5216__123 vssd1 vssd1 vccd1 vccd1 _5216__123/HI _5324_/A sky130_fd_sc_hd__conb_1
XFILLER_22_155 vssd1 vssd1 vccd1 vccd1 sky130_fd_sc_hd__decap_6
X_2939_ _2951_/A _2939_/B vssd1 vssd1 vccd1 vccd1 _2940_/A sky130_fd_sc_hd__and2_1
X_4609_ _4609_/A _4609_/B vssd1 vssd1 vccd1 vccd1 _4610_/A sky130_fd_sc_hd__and2_1
XFILLER_18_439 vssd1 vssd1 vccd1 vccd1 sky130_fd_sc_hd__decap_4
XFILLER_45_225 vssd1 vssd1 vccd1 vccd1 sky130_fd_sc_hd__decap_4
XFILLER_26_472 vssd1 vssd1 vccd1 vccd1 sky130_fd_sc_hd__decap_4
XFILLER_26_483 vssd1 vssd1 vccd1 vccd1 sky130_fd_sc_hd__decap_4
XFILLER_60_228 vssd1 vssd1 vccd1 vccd1 sky130_fd_sc_hd__decap_4
XFILLER_9_104 vssd1 vssd1 vccd1 vccd1 sky130_fd_sc_hd__fill_1
XFILLER_41_464 vssd1 vssd1 vccd1 vccd1 sky130_fd_sc_hd__fill_2
XFILLER_9_137 vssd1 vssd1 vccd1 vccd1 sky130_fd_sc_hd__decap_8
XFILLER_9_126 vssd1 vssd1 vccd1 vccd1 sky130_fd_sc_hd__decap_4
XFILLER_5_398 vssd1 vssd1 vccd1 vccd1 sky130_fd_sc_hd__decap_6
XFILLER_68_317 vssd1 vssd1 vccd1 vccd1 sky130_fd_sc_hd__decap_6
XFILLER_68_339 vssd1 vssd1 vccd1 vccd1 sky130_fd_sc_hd__decap_4
XFILLER_3_78 vssd1 vssd1 vccd1 vccd1 sky130_fd_sc_hd__decap_4
XFILLER_36_225 vssd1 vssd1 vccd1 vccd1 sky130_fd_sc_hd__fill_1
XFILLER_36_258 vssd1 vssd1 vccd1 vccd1 sky130_fd_sc_hd__decap_8
X_4960_ _4964_/CLK _4960_/D vssd1 vssd1 vccd1 vccd1 _4960_/Q sky130_fd_sc_hd__dfxtp_1
XFILLER_51_217 vssd1 vssd1 vccd1 vccd1 sky130_fd_sc_hd__decap_6
X_3911_ _3909_/X _3910_/Y _3848_/X vssd1 vssd1 vccd1 vccd1 _3911_/X sky130_fd_sc_hd__a21o_1
X_4891_ _5087_/CLK _4891_/D vssd1 vssd1 vccd1 vccd1 _4891_/Q sky130_fd_sc_hd__dfxtp_1
X_3842_ _3848_/A vssd1 vssd1 vccd1 vccd1 _3842_/X sky130_fd_sc_hd__clkbuf_2
X_3773_ _4076_/A vssd1 vssd1 vccd1 vccd1 _3773_/X sky130_fd_sc_hd__clkbuf_2
X_2724_ _4991_/Q _4783_/Q _2727_/S vssd1 vssd1 vccd1 vccd1 _2725_/B sky130_fd_sc_hd__mux2_1
X_2655_ _2662_/A _2655_/B vssd1 vssd1 vccd1 vccd1 _2656_/A sky130_fd_sc_hd__and2_1
X_4325_ _4325_/A _4325_/B vssd1 vssd1 vccd1 vccd1 _4325_/Y sky130_fd_sc_hd__nand2_1
X_2586_ _2586_/A vssd1 vssd1 vccd1 vccd1 _4743_/D sky130_fd_sc_hd__clkbuf_1
X_4256_ _4284_/A _4256_/B vssd1 vssd1 vccd1 vccd1 _4256_/X sky130_fd_sc_hd__xor2_1
X_3207_ _3233_/A _3207_/B vssd1 vssd1 vccd1 vccd1 _3207_/X sky130_fd_sc_hd__xor2_1
X_4187_ _4281_/A vssd1 vssd1 vccd1 vccd1 _4187_/X sky130_fd_sc_hd__clkbuf_2
X_3138_ _3138_/A _3138_/B _3138_/C vssd1 vssd1 vccd1 vccd1 _3138_/X sky130_fd_sc_hd__and3_1
XFILLER_27_225 vssd1 vssd1 vccd1 vccd1 sky130_fd_sc_hd__fill_1
XFILLER_82_353 vssd1 vssd1 vccd1 vccd1 sky130_fd_sc_hd__fill_2
X_3069_ _4859_/Q _2976_/A _3067_/Y _3068_/X _3037_/X vssd1 vssd1 vccd1 vccd1 _4859_/D
+ sky130_fd_sc_hd__o221a_1
XFILLER_42_228 vssd1 vssd1 vccd1 vccd1 sky130_fd_sc_hd__decap_6
XFILLER_82_397 vssd1 vssd1 vccd1 vccd1 sky130_fd_sc_hd__decap_4
XFILLER_23_420 vssd1 vssd1 vccd1 vccd1 sky130_fd_sc_hd__decap_4
XFILLER_35_291 vssd1 vssd1 vccd1 vccd1 sky130_fd_sc_hd__decap_4
XFILLER_42_239 vssd1 vssd1 vccd1 vccd1 sky130_fd_sc_hd__decap_4
XFILLER_23_442 vssd1 vssd1 vccd1 vccd1 sky130_fd_sc_hd__decap_6
XFILLER_50_250 vssd1 vssd1 vccd1 vccd1 sky130_fd_sc_hd__fill_2
XFILLER_50_261 vssd1 vssd1 vccd1 vccd1 sky130_fd_sc_hd__decap_8
XFILLER_77_169 vssd1 vssd1 vccd1 vccd1 sky130_fd_sc_hd__decap_6
XFILLER_58_394 vssd1 vssd1 vccd1 vccd1 sky130_fd_sc_hd__decap_6
XFILLER_33_217 vssd1 vssd1 vccd1 vccd1 sky130_fd_sc_hd__decap_6
XFILLER_33_239 vssd1 vssd1 vccd1 vccd1 sky130_fd_sc_hd__decap_4
XFILLER_14_486 vssd1 vssd1 vccd1 vccd1 sky130_fd_sc_hd__decap_12
XFILLER_53_94 vssd1 vssd1 vccd1 vccd1 sky130_fd_sc_hd__decap_4
X_5177__84 vssd1 vssd1 vccd1 vccd1 _5177__84/HI _5272_/A sky130_fd_sc_hd__conb_1
XFILLER_5_173 vssd1 vssd1 vccd1 vccd1 sky130_fd_sc_hd__decap_4
X_2440_ _2441_/A vssd1 vssd1 vccd1 vccd1 _2440_/Y sky130_fd_sc_hd__inv_2
XFILLER_68_136 vssd1 vssd1 vccd1 vccd1 sky130_fd_sc_hd__decap_4
X_4110_ _4101_/A _4103_/Y _4108_/X _4052_/A vssd1 vssd1 vccd1 vccd1 _4110_/X sky130_fd_sc_hd__a31o_1
X_5090_ _5091_/CLK _5090_/D vssd1 vssd1 vccd1 vccd1 _5090_/Q sky130_fd_sc_hd__dfxtp_1
X_4041_ _4993_/Q _4773_/Q vssd1 vssd1 vccd1 vccd1 _4042_/B sky130_fd_sc_hd__xnor2_1
XFILLER_56_309 vssd1 vssd1 vccd1 vccd1 sky130_fd_sc_hd__decap_3
XFILLER_49_372 vssd1 vssd1 vccd1 vccd1 sky130_fd_sc_hd__decap_4
XFILLER_49_383 vssd1 vssd1 vccd1 vccd1 sky130_fd_sc_hd__decap_8
XFILLER_24_217 vssd1 vssd1 vccd1 vccd1 sky130_fd_sc_hd__decap_4
XFILLER_24_228 vssd1 vssd1 vccd1 vccd1 sky130_fd_sc_hd__decap_4
X_4943_ _5122_/CLK _4943_/D vssd1 vssd1 vccd1 vccd1 _4943_/Q sky130_fd_sc_hd__dfxtp_1
X_4874_ _5066_/CLK _4874_/D vssd1 vssd1 vccd1 vccd1 _4874_/Q sky130_fd_sc_hd__dfxtp_1
XFILLER_32_261 vssd1 vssd1 vccd1 vccd1 sky130_fd_sc_hd__decap_12
X_3825_ _4966_/Q _4746_/Q vssd1 vssd1 vccd1 vccd1 _3827_/A sky130_fd_sc_hd__nor2_1
X_3756_ _3753_/X _3754_/Y _3755_/X vssd1 vssd1 vccd1 vccd1 _3756_/X sky130_fd_sc_hd__a21o_1
X_2707_ _2715_/A _2707_/B vssd1 vssd1 vccd1 vccd1 _2708_/A sky130_fd_sc_hd__and2_1
X_3687_ _5114_/Q _4946_/Q _3686_/X _3678_/B vssd1 vssd1 vccd1 vccd1 _3687_/X sky130_fd_sc_hd__a31o_1
X_2638_ _2638_/A vssd1 vssd1 vccd1 vccd1 _4758_/D sky130_fd_sc_hd__clkbuf_1
X_2569_ _2569_/A vssd1 vssd1 vccd1 vccd1 _4738_/D sky130_fd_sc_hd__clkbuf_1
XFILLER_59_103 vssd1 vssd1 vccd1 vccd1 sky130_fd_sc_hd__decap_8
X_5288_ _5288_/A _2533_/Y vssd1 vssd1 vccd1 vccd1 io_oeb[0] sky130_fd_sc_hd__ebufn_8
X_4308_ _4290_/A _4292_/Y _4297_/B _4305_/A _4295_/Y vssd1 vssd1 vccd1 vccd1 _4308_/Y
+ sky130_fd_sc_hd__a311oi_2
X_4239_ _4239_/A _4239_/B vssd1 vssd1 vccd1 vccd1 _4241_/B sky130_fd_sc_hd__and2_1
XFILLER_59_147 vssd1 vssd1 vccd1 vccd1 sky130_fd_sc_hd__fill_1
XFILLER_59_169 vssd1 vssd1 vccd1 vccd1 sky130_fd_sc_hd__decap_3
XFILLER_74_27 vssd1 vssd1 vccd1 vccd1 sky130_fd_sc_hd__fill_1
XFILLER_55_375 vssd1 vssd1 vccd1 vccd1 sky130_fd_sc_hd__fill_1
XFILLER_55_397 vssd1 vssd1 vccd1 vccd1 sky130_fd_sc_hd__fill_1
XFILLER_70_389 vssd1 vssd1 vccd1 vccd1 sky130_fd_sc_hd__decap_4
XFILLER_11_434 vssd1 vssd1 vccd1 vccd1 sky130_fd_sc_hd__decap_4
XFILLER_11_467 vssd1 vssd1 vccd1 vccd1 sky130_fd_sc_hd__decap_4
XFILLER_23_86 vssd1 vssd1 vccd1 vccd1 sky130_fd_sc_hd__fill_1
XFILLER_48_72 vssd1 vssd1 vccd1 vccd1 sky130_fd_sc_hd__fill_1
XFILLER_0_24 vssd1 vssd1 vccd1 vccd1 sky130_fd_sc_hd__decap_4
XFILLER_0_57 vssd1 vssd1 vccd1 vccd1 sky130_fd_sc_hd__fill_2
XFILLER_73_183 vssd1 vssd1 vccd1 vccd1 sky130_fd_sc_hd__decap_4
X_4590_ _4590_/A vssd1 vssd1 vccd1 vccd1 _5080_/D sky130_fd_sc_hd__clkbuf_1
X_3610_ _4938_/Q _5106_/Q vssd1 vssd1 vccd1 vccd1 _3610_/Y sky130_fd_sc_hd__nand2_1
X_3541_ _3541_/A _3541_/B vssd1 vssd1 vccd1 vccd1 _3546_/A sky130_fd_sc_hd__and2_1
X_3472_ _3466_/A _3466_/B _3471_/Y vssd1 vssd1 vccd1 vccd1 _3477_/A sky130_fd_sc_hd__o21ai_1
XFILLER_50_3 vssd1 vssd1 vccd1 vccd1 sky130_fd_sc_hd__decap_12
X_2423_ _2548_/A vssd1 vssd1 vccd1 vccd1 _2428_/A sky130_fd_sc_hd__buf_6
XFILLER_69_445 vssd1 vssd1 vccd1 vccd1 sky130_fd_sc_hd__decap_3
XFILLER_69_478 vssd1 vssd1 vccd1 vccd1 sky130_fd_sc_hd__fill_1
X_5073_ _5098_/CLK _5073_/D vssd1 vssd1 vccd1 vccd1 _5073_/Q sky130_fd_sc_hd__dfxtp_1
X_4024_ _3937_/X _4020_/Y _4021_/X _4023_/X vssd1 vssd1 vccd1 vccd1 _4978_/D sky130_fd_sc_hd__o211a_1
XFILLER_71_109 vssd1 vssd1 vccd1 vccd1 sky130_fd_sc_hd__decap_3
X_4926_ _5106_/CLK _4926_/D vssd1 vssd1 vccd1 vccd1 _4926_/Q sky130_fd_sc_hd__dfxtp_1
X_4857_ _5040_/CLK _4857_/D vssd1 vssd1 vccd1 vccd1 _4857_/Q sky130_fd_sc_hd__dfxtp_1
XFILLER_20_253 vssd1 vssd1 vccd1 vccd1 sky130_fd_sc_hd__decap_4
X_3808_ _3807_/Y _3788_/B _3786_/Y vssd1 vssd1 vccd1 vccd1 _3808_/Y sky130_fd_sc_hd__a21oi_1
X_4788_ _5002_/CLK _4788_/D vssd1 vssd1 vccd1 vccd1 _4788_/Q sky130_fd_sc_hd__dfxtp_1
XFILLER_20_286 vssd1 vssd1 vccd1 vccd1 sky130_fd_sc_hd__fill_1
X_3739_ _3720_/A _3722_/Y _3728_/B _3736_/A _3726_/Y vssd1 vssd1 vccd1 vccd1 _3739_/Y
+ sky130_fd_sc_hd__a311oi_2
XFILLER_75_404 vssd1 vssd1 vccd1 vccd1 sky130_fd_sc_hd__fill_1
XFILLER_18_64 vssd1 vssd1 vccd1 vccd1 sky130_fd_sc_hd__decap_4
XFILLER_70_120 vssd1 vssd1 vccd1 vccd1 sky130_fd_sc_hd__decap_4
XFILLER_70_153 vssd1 vssd1 vccd1 vccd1 sky130_fd_sc_hd__decap_4
XFILLER_43_356 vssd1 vssd1 vccd1 vccd1 sky130_fd_sc_hd__decap_8
XFILLER_11_231 vssd1 vssd1 vccd1 vccd1 sky130_fd_sc_hd__decap_8
XFILLER_11_220 vssd1 vssd1 vccd1 vccd1 sky130_fd_sc_hd__decap_4
XFILLER_34_85 vssd1 vssd1 vccd1 vccd1 sky130_fd_sc_hd__decap_4
XFILLER_11_275 vssd1 vssd1 vccd1 vccd1 sky130_fd_sc_hd__decap_4
XFILLER_11_286 vssd1 vssd1 vccd1 vccd1 sky130_fd_sc_hd__decap_4
XFILLER_50_51 vssd1 vssd1 vccd1 vccd1 sky130_fd_sc_hd__decap_4
X_5147__54 vssd1 vssd1 vccd1 vccd1 _5147__54/HI _5242_/A sky130_fd_sc_hd__conb_1
XFILLER_3_430 vssd1 vssd1 vccd1 vccd1 sky130_fd_sc_hd__decap_8
XTAP_507 vssd1 vccd1 sky130_fd_sc_hd__tapvpwrvgnd_1
XFILLER_78_220 vssd1 vssd1 vccd1 vccd1 sky130_fd_sc_hd__decap_4
XTAP_518 vssd1 vccd1 sky130_fd_sc_hd__tapvpwrvgnd_1
XTAP_529 vssd1 vccd1 sky130_fd_sc_hd__tapvpwrvgnd_1
XFILLER_22_7 vssd1 vssd1 vccd1 vccd1 sky130_fd_sc_hd__fill_1
XFILLER_59_93 vssd1 vssd1 vccd1 vccd1 sky130_fd_sc_hd__decap_4
XFILLER_66_437 vssd1 vssd1 vccd1 vccd1 sky130_fd_sc_hd__decap_4
XFILLER_75_70 vssd1 vssd1 vccd1 vccd1 sky130_fd_sc_hd__decap_6
XFILLER_19_364 vssd1 vssd1 vccd1 vccd1 sky130_fd_sc_hd__fill_1
X_2972_ _3168_/A _4844_/Q _4845_/Q vssd1 vssd1 vccd1 vccd1 _4129_/A sky130_fd_sc_hd__or3b_4
XFILLER_61_164 vssd1 vssd1 vccd1 vccd1 sky130_fd_sc_hd__decap_4
X_4711_ _4711_/A vssd1 vssd1 vccd1 vccd1 _5115_/D sky130_fd_sc_hd__clkbuf_1
X_4642_ _4642_/A vssd1 vssd1 vccd1 vccd1 _5095_/D sky130_fd_sc_hd__clkbuf_1
X_4573_ _4573_/A vssd1 vssd1 vccd1 vccd1 _5075_/D sky130_fd_sc_hd__clkbuf_1
X_3524_ _3523_/Y _3499_/Y _3522_/B _3500_/A vssd1 vssd1 vccd1 vccd1 _3524_/Y sky130_fd_sc_hd__a211oi_1
X_3455_ _4219_/A _3553_/B vssd1 vssd1 vccd1 vccd1 _3544_/B sky130_fd_sc_hd__nor2_2
XFILLER_69_220 vssd1 vssd1 vccd1 vccd1 sky130_fd_sc_hd__decap_4
X_3386_ _4911_/Q _5079_/Q vssd1 vssd1 vccd1 vccd1 _3388_/A sky130_fd_sc_hd__nor2_1
XFILLER_57_426 vssd1 vssd1 vccd1 vccd1 sky130_fd_sc_hd__fill_1
X_5056_ _5058_/CLK _5056_/D vssd1 vssd1 vccd1 vccd1 _5056_/Q sky130_fd_sc_hd__dfxtp_1
X_4007_ _4976_/Q _3933_/X _4006_/X _3945_/X vssd1 vssd1 vccd1 vccd1 _4976_/D sky130_fd_sc_hd__o211a_1
XFILLER_65_470 vssd1 vssd1 vccd1 vccd1 sky130_fd_sc_hd__decap_8
XFILLER_37_183 vssd1 vssd1 vccd1 vccd1 sky130_fd_sc_hd__fill_1
XFILLER_40_315 vssd1 vssd1 vccd1 vccd1 sky130_fd_sc_hd__decap_6
XFILLER_52_186 vssd1 vssd1 vccd1 vccd1 sky130_fd_sc_hd__decap_8
X_4909_ _5091_/CLK _4909_/D vssd1 vssd1 vccd1 vccd1 _4909_/Q sky130_fd_sc_hd__dfxtp_2
XFILLER_20_32 vssd1 vssd1 vccd1 vccd1 sky130_fd_sc_hd__decap_4
XFILLER_0_444 vssd1 vssd1 vccd1 vccd1 sky130_fd_sc_hd__decap_4
XFILLER_75_212 vssd1 vssd1 vccd1 vccd1 sky130_fd_sc_hd__decap_4
XFILLER_0_477 vssd1 vssd1 vccd1 vccd1 sky130_fd_sc_hd__fill_2
XFILLER_29_41 vssd1 vssd1 vccd1 vccd1 sky130_fd_sc_hd__decap_4
XFILLER_48_426 vssd1 vssd1 vccd1 vccd1 sky130_fd_sc_hd__decap_8
XFILLER_75_245 vssd1 vssd1 vccd1 vccd1 sky130_fd_sc_hd__fill_1
XFILLER_28_150 vssd1 vssd1 vccd1 vccd1 sky130_fd_sc_hd__fill_1
XFILLER_28_194 vssd1 vssd1 vccd1 vccd1 sky130_fd_sc_hd__fill_2
XFILLER_43_120 vssd1 vssd1 vccd1 vccd1 sky130_fd_sc_hd__fill_1
XFILLER_31_337 vssd1 vssd1 vccd1 vccd1 sky130_fd_sc_hd__decap_4
XFILLER_31_359 vssd1 vssd1 vccd1 vccd1 sky130_fd_sc_hd__decap_6
XFILLER_61_50 vssd1 vssd1 vccd1 vccd1 sky130_fd_sc_hd__decap_6
Xclkbuf_leaf_14_wb_clk_i clkbuf_2_1_0_wb_clk_i/X vssd1 vssd1 vccd1 vccd1 _5018_/CLK
+ sky130_fd_sc_hd__clkbuf_16
XFILLER_61_94 vssd1 vssd1 vccd1 vccd1 sky130_fd_sc_hd__fill_1
XFILLER_6_12 vssd1 vssd1 vccd1 vccd1 sky130_fd_sc_hd__decap_4
XTAP_304 vssd1 vccd1 sky130_fd_sc_hd__tapvpwrvgnd_1
XTAP_315 vssd1 vccd1 sky130_fd_sc_hd__tapvpwrvgnd_1
XTAP_326 vssd1 vccd1 sky130_fd_sc_hd__tapvpwrvgnd_1
XTAP_337 vssd1 vccd1 sky130_fd_sc_hd__tapvpwrvgnd_1
XTAP_348 vssd1 vccd1 sky130_fd_sc_hd__tapvpwrvgnd_1
X_3240_ _4892_/Q _5060_/Q vssd1 vssd1 vccd1 vccd1 _3241_/B sky130_fd_sc_hd__or2_1
XTAP_359 vssd1 vccd1 sky130_fd_sc_hd__tapvpwrvgnd_1
X_3171_ _3257_/B vssd1 vssd1 vccd1 vccd1 _3223_/A sky130_fd_sc_hd__clkbuf_2
XFILLER_13_3 vssd1 vssd1 vccd1 vccd1 sky130_fd_sc_hd__decap_4
XFILLER_66_267 vssd1 vssd1 vccd1 vccd1 sky130_fd_sc_hd__decap_4
XFILLER_22_315 vssd1 vssd1 vccd1 vccd1 sky130_fd_sc_hd__decap_12
X_2955_ _4418_/A _2955_/B vssd1 vssd1 vccd1 vccd1 _2956_/A sky130_fd_sc_hd__and2_1
X_2886_ _2889_/A vssd1 vssd1 vccd1 vccd1 _2886_/X sky130_fd_sc_hd__dlymetal6s2s_1
X_4625_ _4911_/Q _5091_/Q _4629_/S vssd1 vssd1 vccd1 vccd1 _4626_/B sky130_fd_sc_hd__mux2_1
X_4556_ _4891_/Q _5071_/Q _4561_/S vssd1 vssd1 vccd1 vccd1 _4557_/B sky130_fd_sc_hd__mux2_1
X_3507_ _3521_/A _3508_/B vssd1 vssd1 vccd1 vccd1 _3507_/X sky130_fd_sc_hd__or2_1
X_4487_ _4871_/Q _5051_/Q _4491_/S vssd1 vssd1 vccd1 vccd1 _4488_/B sky130_fd_sc_hd__mux2_1
X_3438_ _3436_/Y _3438_/B vssd1 vssd1 vccd1 vccd1 _3438_/X sky130_fd_sc_hd__and2b_1
XTAP_871 vssd1 vccd1 sky130_fd_sc_hd__tapvpwrvgnd_1
XTAP_860 vssd1 vccd1 sky130_fd_sc_hd__tapvpwrvgnd_1
X_3369_ _4896_/Q _3363_/X _3368_/X _3353_/X vssd1 vssd1 vccd1 vccd1 _4896_/D sky130_fd_sc_hd__o211a_1
XTAP_893 vssd1 vccd1 sky130_fd_sc_hd__tapvpwrvgnd_1
XTAP_882 vssd1 vccd1 sky130_fd_sc_hd__tapvpwrvgnd_1
X_5108_ _5121_/CLK _5108_/D vssd1 vssd1 vccd1 vccd1 _5108_/Q sky130_fd_sc_hd__dfxtp_1
XFILLER_57_223 vssd1 vssd1 vccd1 vccd1 sky130_fd_sc_hd__fill_1
XFILLER_57_267 vssd1 vssd1 vccd1 vccd1 sky130_fd_sc_hd__decap_4
XFILLER_72_215 vssd1 vssd1 vccd1 vccd1 sky130_fd_sc_hd__decap_4
X_5039_ _5040_/CLK _5039_/D vssd1 vssd1 vccd1 vccd1 _5039_/Q sky130_fd_sc_hd__dfxtp_1
XFILLER_15_10 vssd1 vssd1 vccd1 vccd1 sky130_fd_sc_hd__decap_8
XFILLER_13_348 vssd1 vssd1 vccd1 vccd1 sky130_fd_sc_hd__decap_8
XFILLER_25_197 vssd1 vssd1 vccd1 vccd1 sky130_fd_sc_hd__decap_4
XFILLER_40_112 vssd1 vssd1 vccd1 vccd1 sky130_fd_sc_hd__decap_3
XFILLER_15_76 vssd1 vssd1 vccd1 vccd1 sky130_fd_sc_hd__decap_6
XFILLER_9_308 vssd1 vssd1 vccd1 vccd1 sky130_fd_sc_hd__decap_4
XFILLER_48_212 vssd1 vssd1 vccd1 vccd1 sky130_fd_sc_hd__decap_8
XFILLER_48_267 vssd1 vssd1 vccd1 vccd1 sky130_fd_sc_hd__fill_1
XFILLER_71_281 vssd1 vssd1 vccd1 vccd1 sky130_fd_sc_hd__decap_4
XFILLER_72_93 vssd1 vssd1 vccd1 vccd1 sky130_fd_sc_hd__decap_4
X_2740_ _2750_/A _2740_/B vssd1 vssd1 vccd1 vccd1 _2741_/A sky130_fd_sc_hd__and2_1
X_2671_ _4976_/Q _4768_/Q _2674_/S vssd1 vssd1 vccd1 vccd1 _2672_/B sky130_fd_sc_hd__mux2_1
XFILLER_8_396 vssd1 vssd1 vccd1 vccd1 sky130_fd_sc_hd__decap_4
XFILLER_8_374 vssd1 vssd1 vccd1 vccd1 sky130_fd_sc_hd__decap_6
X_4410_ _4410_/A vssd1 vssd1 vccd1 vccd1 _5028_/D sky130_fd_sc_hd__clkbuf_1
X_4341_ _4341_/A _4341_/B vssd1 vssd1 vccd1 vccd1 _4341_/Y sky130_fd_sc_hd__nor2_1
X_4272_ _4271_/Y _4263_/B _4269_/Y vssd1 vssd1 vccd1 vccd1 _4272_/Y sky130_fd_sc_hd__a21oi_1
X_3223_ _3223_/A _3223_/B vssd1 vssd1 vccd1 vccd1 _3223_/Y sky130_fd_sc_hd__nand2_1
XTAP_178 vssd1 vccd1 sky130_fd_sc_hd__tapvpwrvgnd_1
XTAP_189 vssd1 vccd1 sky130_fd_sc_hd__tapvpwrvgnd_1
X_3154_ _3144_/A _3146_/Y _3152_/X _3084_/A vssd1 vssd1 vccd1 vccd1 _3154_/X sky130_fd_sc_hd__a31o_1
X_3085_ _3082_/X _3083_/Y _3084_/X vssd1 vssd1 vccd1 vccd1 _3085_/X sky130_fd_sc_hd__a21o_1
XFILLER_27_429 vssd1 vssd1 vccd1 vccd1 sky130_fd_sc_hd__decap_4
XFILLER_54_226 vssd1 vssd1 vccd1 vccd1 sky130_fd_sc_hd__fill_2
XFILLER_54_248 vssd1 vssd1 vccd1 vccd1 sky130_fd_sc_hd__decap_4
XFILLER_50_432 vssd1 vssd1 vccd1 vccd1 sky130_fd_sc_hd__fill_1
X_3987_ _4986_/Q _4766_/Q vssd1 vssd1 vccd1 vccd1 _3995_/A sky130_fd_sc_hd__nand2_1
XFILLER_22_167 vssd1 vssd1 vccd1 vccd1 sky130_fd_sc_hd__decap_4
X_2938_ _5279_/A _4854_/Q _2944_/S vssd1 vssd1 vccd1 vccd1 _2939_/B sky130_fd_sc_hd__mux2_1
X_2869_ _3037_/A vssd1 vssd1 vccd1 vccd1 _2869_/X sky130_fd_sc_hd__clkbuf_2
X_4608_ _4906_/Q _5086_/Q _4612_/S vssd1 vssd1 vccd1 vccd1 _4609_/B sky130_fd_sc_hd__mux2_1
X_4539_ _4539_/A _4539_/B vssd1 vssd1 vccd1 vccd1 _4540_/A sky130_fd_sc_hd__and2_1
XFILLER_77_318 vssd1 vssd1 vccd1 vccd1 sky130_fd_sc_hd__fill_2
XTAP_690 vssd1 vccd1 sky130_fd_sc_hd__tapvpwrvgnd_1
XFILLER_26_451 vssd1 vssd1 vccd1 vccd1 sky130_fd_sc_hd__fill_1
XFILLER_26_97 vssd1 vssd1 vccd1 vccd1 sky130_fd_sc_hd__fill_2
XFILLER_13_167 vssd1 vssd1 vccd1 vccd1 sky130_fd_sc_hd__fill_1
XFILLER_13_178 vssd1 vssd1 vccd1 vccd1 sky130_fd_sc_hd__fill_1
XFILLER_67_71 vssd1 vssd1 vccd1 vccd1 sky130_fd_sc_hd__decap_4
X_5198__105 vssd1 vssd1 vccd1 vccd1 _5198__105/HI _5306_/A sky130_fd_sc_hd__conb_1
XFILLER_83_81 vssd1 vssd1 vccd1 vccd1 sky130_fd_sc_hd__decap_6
X_3910_ _3910_/A _3910_/B vssd1 vssd1 vccd1 vccd1 _3910_/Y sky130_fd_sc_hd__nand2_2
X_4890_ _5070_/CLK _4890_/D vssd1 vssd1 vccd1 vccd1 _4890_/Q sky130_fd_sc_hd__dfxtp_1
XFILLER_32_410 vssd1 vssd1 vccd1 vccd1 sky130_fd_sc_hd__decap_8
XFILLER_32_421 vssd1 vssd1 vccd1 vccd1 sky130_fd_sc_hd__decap_3
X_3841_ _4219_/A _3936_/B vssd1 vssd1 vccd1 vccd1 _3848_/A sky130_fd_sc_hd__or2_2
XFILLER_32_487 vssd1 vssd1 vccd1 vccd1 sky130_fd_sc_hd__decap_4
X_3772_ _3763_/A _3765_/Y _3770_/Y _3755_/X vssd1 vssd1 vccd1 vccd1 _3772_/X sky130_fd_sc_hd__a31o_1
X_2723_ _2723_/A vssd1 vssd1 vccd1 vccd1 _4782_/D sky130_fd_sc_hd__clkbuf_1